30
E(RHF/6-31G(d,p))=-760.390331
     O        1.7718210000     -1.2413960000      1.8744000000
     H        1.7821340000     -0.2824610000      1.8183180000
     H        2.3626960000     -1.4845560000      2.568138000
     O        1.7869450000      1.4919230000      1.4657290000
     H        0.9198940000      1.8789680000      1.4945490000
     H        2.0756400000      1.5732510000      0.5638150000
     O       -0.9705080000      2.4543330000      1.1741860000
     H       -1.5683700000      1.7148560000      1.2631560000                 
     H       -1.3594600000      3.1857430000      1.6250150000
     H       -3.3919700000     -0.0316270000      1.7127240000                 
     O       -2.5894740000      0.1263090000      1.2427860000                 
     H       -2.0294390000     -0.6440420000      1.3824010000
     O       -0.9763060000     -2.0847930000      1.4580430000
     H       -0.8953620000     -2.4163430000      0.5710000000                  
     H       -0.0906280000     -1.8826670000      1.7392970000
     O       -0.6466630000     -2.4190520000     -1.4223760000
     H       -1.1713300000     -1.6354490000     -1.6131980000
     H       -0.9453630000     -3.0991550000     -2.0035390000
     O       -2.1747290000     -0.1560820000     -1.7151710000                 
     H       -2.5427690000     -0.0116510000     -0.8534930000                  
     H       -1.6589090000      0.6249350000     -1.9039340000
     O       -0.5149390000      2.1617050000     -1.7648420000
     H        0.3987930000      1.9048510000     -1.7981190000
     H       -0.6576470000      2.4772540000     -0.8823780000
     O        2.2389120000      1.2012410000     -1.3998080000
     H        2.9803070000      1.4331020000     -1.9346260000
     H        2.2056410000      0.2419220000     -1.3658840000
     O        2.0985770000     -1.5365340000     -1.0373930000
     H        2.1378130000     -1.6261910000     -0.0928690000
     H        1.2592460000     -1.9019690000     -1.2947940000
 