21
E(RHF/6-31G(d,p))=-532.2617712
   O        0.1501090000     -0.3721650000      2.1960150000                 
   H        0.2455720000     -0.5213250000      3.1222660000                 
   H        1.030834         -0.300012          1.828058
   H       -0.412563          1.924142          0.032976                 
   O       -1.1406190000      1.7830880000      0.6257910000   
   H       -0.8079200000      1.2046500000      1.3009270000
   H       -3.8221600000      0.1476320000     -0.3356540000                 
   O       -2.9529620000      0.0737530000     -0.6927650000                 
   H       -2.4325870000      0.7690770000     -0.2943180000
   O       -0.9922540000     -1.9027530000     -0.0630010000
   H       -0.7589680000     -1.5882230000      0.8016990000                 
   H       -1.757984         -1.398584         -0.323877
   O        1.1659560000     -1.1636650000     -1.5859330000
   H        1.3130630000     -1.7580970000     -2.3030070000                 
   H        0.388761         -1.479395         -1.113410
   O        1.1914830000      1.6567990000     -1.2026870000
   H        1.318275          2.241349         -1.931739                
   H        1.1045090000      0.7751050000     -1.5546830000
   O        2.5457960000     -0.0875240000      0.7666220000
   H        2.3939640000     -0.6862360000      0.0457720000                 
   H        2.4571400000      0.7696540000      0.3726490000  