6
E(RHF/6-31g(d,p))=-152.0560581
             H       -1.958940   -0.032063    0.725554
             H       -0.607485    0.010955    0.056172
             O       -1.538963    0.004548   -0.117331
             H        9.880651    0.703478   -0.122595
             H        9.857354   -0.806388   -0.169859
             O        9.58382    -0.06235     0.342787
