6
E(RHF/6-31g(d,p))=-152.0560581
             H       -1.958940   -0.032063    0.725554
             H       -0.607485    0.010955    0.056172
             O       -1.538963    0.004548   -0.117331
             H        3.765868    0.747461   -0.294564
             H        3.742571   -0.762405   -0.341828
             O        3.469037    -0.018367   0.170818
