6
E(RHF/6-31g(d,p))=-152.0560581
             H       -1.958940   -0.032063    0.725554
             H       -0.607485    0.010955    0.056172
             O       -1.538963    0.004548   -0.117331
             H        13.957173   0.674156    0.457433
             H        13.933876  -0.83571    -0.007949
             O        13.660342  -0.091672    0.114646



